Version 4
SHEET 1 2360 1000
WIRE 1600 -1024 1536 -1024
WIRE 128 -880 -48 -880
WIRE 160 -880 128 -880
WIRE 288 -880 240 -880
WIRE 672 -880 352 -880
WIRE 944 -880 672 -880
WIRE 1152 -880 944 -880
WIRE 1440 -880 1152 -880
WIRE 1536 -880 1536 -1024
WIRE 1536 -880 1440 -880
WIRE 1600 -880 1536 -880
WIRE 2240 -880 2144 -880
WIRE 2272 -880 2240 -880
WIRE 2304 -880 2272 -880
WIRE 2192 -800 2144 -800
WIRE 2240 -800 2240 -880
WIRE 2240 -800 2192 -800
WIRE 128 -784 128 -880
WIRE 288 -784 288 -880
WIRE -192 -720 -320 -720
WIRE -48 -720 -48 -880
WIRE -48 -720 -192 -720
WIRE 48 -720 -48 -720
WIRE 560 -688 480 -688
WIRE 1712 -688 1712 -720
WIRE 1712 -688 1632 -688
WIRE 560 -672 560 -688
WIRE 672 -672 672 -880
WIRE 672 -672 560 -672
WIRE 1840 -672 1840 -720
WIRE 2064 -672 2064 -720
WIRE 2192 -672 2192 -720
WIRE 2192 -672 2064 -672
WIRE 2192 -656 2192 -672
WIRE 48 -624 -48 -624
WIRE 480 -624 368 -624
WIRE 512 -624 480 -624
WIRE 512 -608 512 -624
WIRE 560 -608 512 -608
WIRE 1936 -608 1936 -720
WIRE 2240 -608 2240 -800
WIRE 560 -592 560 -608
WIRE 672 -592 560 -592
WIRE 48 -528 -48 -528
WIRE 400 -528 368 -528
WIRE 576 -528 544 -528
WIRE -48 -512 -48 -528
WIRE 672 -512 672 -592
WIRE 2192 -512 2192 -576
WIRE 576 -496 576 -528
WIRE 1600 -496 1520 -496
WIRE 1664 -496 1600 -496
WIRE 1840 -496 1664 -496
WIRE 48 -432 0 -432
WIRE 448 -432 368 -432
WIRE 0 -416 0 -432
WIRE 1600 -416 1600 -432
WIRE 1664 -416 1600 -416
WIRE 448 -400 448 -432
WIRE 1664 -384 1664 -416
WIRE 1840 -384 1840 -496
WIRE -48 -352 -48 -432
WIRE 0 -352 -48 -352
WIRE 1520 -352 1520 -496
WIRE 1568 -352 1520 -352
WIRE 1520 -336 1520 -352
WIRE 2064 -320 1920 -320
WIRE 208 -304 208 -368
WIRE -48 -288 -48 -352
WIRE 2064 -272 2064 -320
WIRE 2064 -272 1920 -272
WIRE 2144 -272 2064 -272
WIRE 2192 -272 2144 -272
WIRE 2240 -272 2240 -528
WIRE 2240 -272 2192 -272
WIRE 2144 -256 2144 -272
WIRE 1568 -224 1520 -224
WIRE 2064 -224 2064 -272
WIRE 2064 -144 1920 -144
WIRE 1568 -96 1552 -96
WIRE 2064 -96 2064 -144
WIRE -320 -80 -320 -720
WIRE -144 -80 -320 -80
WIRE -48 -80 -144 -80
WIRE 112 -80 -48 -80
WIRE 160 -80 112 -80
WIRE 272 -80 240 -80
WIRE 336 -80 272 -80
WIRE 560 -80 400 -80
WIRE 656 -80 560 -80
WIRE 736 -80 720 -80
WIRE 848 -80 736 -80
WIRE 992 -80 848 -80
WIRE 1424 -80 992 -80
WIRE 1520 -80 1520 -224
WIRE 1520 -80 1424 -80
WIRE 1552 -80 1552 -96
WIRE 1552 -80 1520 -80
WIRE 560 -64 560 -80
WIRE 848 -64 848 -80
WIRE -144 0 -144 -16
WIRE 112 16 112 -80
WIRE 272 16 272 -80
WIRE 992 64 992 -80
WIRE -48 80 -48 -80
WIRE 32 80 -48 80
WIRE 384 80 352 80
WIRE 560 96 560 0
WIRE 848 96 848 0
WIRE 848 96 560 96
WIRE 32 176 -48 176
WIRE 992 176 992 144
WIRE 992 176 352 176
WIRE -320 192 -320 -80
WIRE -48 192 -48 176
WIRE 992 256 992 176
WIRE 32 272 -160 272
WIRE 528 272 496 272
WIRE -160 304 -160 272
WIRE 528 304 528 272
WIRE 32 368 -80 368
WIRE 432 368 352 368
WIRE -80 432 -80 368
WIRE 432 448 432 368
WIRE 432 448 416 448
WIRE 192 464 192 432
WIRE 416 464 416 448
FLAG -320 272 0
FLAG 192 464 0
FLAG -80 496 0
FLAG -160 384 0
FLAG -48 192 0
FLAG -144 0 0
FLAG 560 96 0
FLAG 992 336 0
FLAG 528 304 0
FLAG 448 80 0
FLAG 416 464 0
FLAG -48 -288 0
FLAG 448 -400 0
FLAG 576 -496 0
FLAG 672 -432 0
FLAG 1152 -880 VoP
FLAG 432 -720 0
FLAG -48 -624 0
FLAG -192 -656 0
FLAG -320 -720 Vin
FLAG 944 -816 0
FLAG 1840 -672 0
FLAG 1520 -336 0
FLAG 2304 -816 0
FLAG 2144 -192 0
FLAG 1936 -608 0
FLAG 1440 -816 0
FLAG 1424 -16 0
FLAG 1632 -624 0
FLAG 1712 -608 0
FLAG 2192 -512 0
FLAG 208 -304 0
FLAG 2192 -272 ldoMin
FLAG 2272 -880 ldoPlus
FLAG 2064 -16 0
SYMBOL PowerProducts\\LT8333 192 224 R0
SYMATTR InstName U1
SYMBOL ind 256 -96 R90
WINDOW 0 5 56 VBottom 2
WINDOW 3 32 56 VTop 2
SYMATTR InstName L1
SYMATTR Value 2.5µ
SYMATTR SpiceLine Ipk=4.1 Rser=0.051
SYMBOL voltage -320 176 R0
WINDOW 123 0 0 Left 0
WINDOW 39 24 124 Left 2
SYMATTR SpiceLine Rser=.1
SYMATTR InstName V1
SYMATTR Value 5
SYMBOL cap -96 432 R0
SYMATTR InstName C1
SYMATTR Value 5n
SYMBOL cap 448 64 R90
WINDOW 0 0 32 VBottom 2
WINDOW 3 32 32 VTop 2
SYMATTR InstName C2
SYMATTR Value 1µ
SYMBOL res -176 288 R0
SYMATTR InstName R1
SYMATTR Value 20k
SYMBOL cap 400 -96 R90
WINDOW 0 0 32 VBottom 2
WINDOW 3 32 32 VTop 2
SYMATTR InstName C3
SYMATTR Value 1µ
SYMATTR SpiceLine V=20
SYMBOL cap -160 -80 R0
SYMATTR InstName C4
SYMATTR Value 10µ
SYMATTR SpiceLine V=10
SYMBOL cap 832 -64 R0
SYMATTR InstName C5
SYMATTR Value 10µ
SYMATTR SpiceLine V=20
SYMBOL res 976 48 R0
SYMATTR InstName R3
SYMATTR Value 1Meg
SYMBOL res 976 240 R0
SYMATTR InstName R4
SYMATTR Value 270k
SYMBOL res 448 256 R90
WINDOW 0 0 56 VBottom 2
WINDOW 3 32 56 VTop 2
SYMATTR InstName R5
SYMATTR Value 39k
SYMBOL cap 496 256 R90
WINDOW 0 0 32 VBottom 2
WINDOW 3 32 32 VTop 2
SYMATTR InstName C6
SYMATTR Value 1.5n
SYMBOL ind 640 -64 R270
WINDOW 0 32 56 VTop 2
WINDOW 3 5 56 VBottom 2
SYMATTR InstName L2
SYMATTR Value 2.5µ
SYMBOL schottky 544 -64 R0
SYMATTR InstName D1
SYMATTR Value B540C
SYMATTR Description Diode
SYMATTR Type diode
SYMBOL PowerProducts\\LT8333 208 -576 R0
SYMATTR InstName U2
SYMBOL res -64 -528 R0
SYMATTR InstName R6
SYMATTR Value 20k
SYMBOL cap 544 -544 R90
WINDOW 0 0 32 VBottom 2
WINDOW 3 32 32 VTop 2
SYMATTR InstName C7
SYMATTR Value 680p
SYMBOL res 496 -544 R90
WINDOW 0 0 56 VBottom 2
WINDOW 3 32 56 VTop 2
SYMATTR InstName R7
SYMATTR Value 68k
SYMBOL res 688 -576 R180
WINDOW 0 36 76 Left 2
WINDOW 3 36 40 Left 2
SYMATTR InstName R8
SYMATTR Value 1Meg
SYMBOL res 688 -416 R180
WINDOW 0 36 76 Left 2
WINDOW 3 36 40 Left 2
SYMATTR InstName R9
SYMATTR Value 270k
SYMBOL cap 464 -688 R0
SYMATTR InstName C8
SYMATTR Value 4.7p
SYMATTR SpiceLine Rser=.01
SYMBOL ind 256 -896 R90
WINDOW 0 5 56 VBottom 2
WINDOW 3 32 56 VTop 2
SYMATTR InstName L3
SYMATTR Value 1.5µ
SYMATTR SpiceLine Ipk=4 Rser=0.026 Rpar=0 Cpar=0 mfg="Taiyo Yuden" pn="LSXND6060WKL1R5NMG"
SYMBOL schottky 288 -864 R270
WINDOW 0 32 32 VTop 2
WINDOW 3 0 32 VBottom 2
SYMATTR InstName D2
SYMATTR Value MBRS360
SYMATTR Description Diode
SYMATTR Type diode
SYMBOL cap 432 -736 R90
WINDOW 0 0 32 VBottom 2
WINDOW 3 32 32 VTop 2
SYMATTR InstName C9
SYMATTR Value 1µ
SYMBOL cap -208 -720 R0
SYMATTR InstName C10
SYMATTR Value 10µ
SYMBOL cap -16 -416 R0
SYMATTR InstName C11
SYMATTR Value 5n
SYMBOL cap 928 -880 R0
SYMATTR InstName C12
SYMATTR Value 10µ
SYMBOL PowerProducts\\LT3094 1744 -272 R0
SYMATTR InstName U4
SYMBOL PowerProducts\\LT3045 1840 -880 R0
SYMATTR InstName U3
SYMBOL cap 2288 -880 R0
SYMATTR InstName C14
SYMATTR Value 10µ
SYMBOL res 1648 -512 R0
SYMATTR InstName R2
SYMATTR Value 30k
SYMBOL cap 1584 -496 R0
SYMATTR InstName C13
SYMATTR Value 4.7µ
SYMBOL res 1696 -704 R0
SYMATTR InstName R12
SYMATTR Value 70K
SYMBOL cap 1424 -880 R0
SYMATTR InstName C15
SYMATTR Value 10µ
SYMBOL cap 1408 -80 R0
SYMATTR InstName C16
SYMATTR Value 10µ
SYMBOL res 2224 -624 R0
SYMATTR InstName R13
SYMATTR Value 80
SYMBOL cap 1616 -688 R0
SYMATTR InstName C17
SYMATTR Value 4.7µ
SYMBOL res 2176 -672 R0
SYMATTR InstName R15
SYMATTR Value 47k
SYMBOL res 2176 -816 R0
SYMATTR InstName R14
SYMATTR Value 1Meg
SYMBOL cap 2128 -256 R0
SYMATTR InstName C18
SYMATTR Value 10µ
SYMBOL res 2048 -240 R0
SYMATTR InstName R10
SYMATTR Value 1Meg
SYMBOL res 2048 -112 R0
SYMATTR InstName R11
SYMATTR Value 120K
TEXT -352 520 Left 2 !.tran 0 1 0
TEXT 1000 -8 Left 2 ;-3.76V
TEXT 680 -840 Left 2 ;7.526V
