Version 4
SHEET 1 1068 680
WIRE -176 -368 -352 -368
WIRE -16 -368 -176 -368
WIRE 48 -368 -16 -368
WIRE -176 -352 -176 -368
WIRE -352 -288 -352 -368
WIRE -16 -224 -16 -368
WIRE 48 -224 -16 -224
WIRE 656 -224 592 -224
WIRE 784 -224 656 -224
WIRE 992 -224 784 -224
WIRE 656 -144 656 -224
WIRE 656 -144 592 -144
WIRE -352 -128 -352 -208
WIRE 160 -48 160 -64
WIRE 160 -48 96 -48
WIRE 384 -48 384 -64
WIRE 288 0 288 -64
WIRE 512 16 512 -64
WIRE 656 16 656 -64
WIRE 656 16 512 16
WIRE 992 64 992 -224
WIRE -128 208 -256 208
WIRE -16 208 -128 208
WIRE 80 208 -16 208
WIRE 144 208 80 208
WIRE 320 208 144 208
WIRE 592 208 320 208
WIRE 656 208 592 208
WIRE 800 208 656 208
WIRE 80 224 80 208
WIRE 144 224 144 208
WIRE 592 256 592 208
WIRE 656 256 656 208
WIRE 800 256 800 208
WIRE 144 288 80 288
WIRE 144 304 144 288
WIRE 320 304 320 288
WIRE 592 304 592 256
WIRE -16 336 -16 208
WIRE 48 336 -16 336
WIRE -256 352 -256 208
WIRE 448 368 400 368
WIRE 592 368 592 320
WIRE 592 368 448 368
WIRE 992 368 992 144
WIRE 992 368 592 368
WIRE 448 416 448 368
WIRE 448 416 400 416
WIRE 592 416 592 368
WIRE 48 464 -16 464
WIRE -128 528 -128 208
WIRE 592 544 592 496
WIRE 592 544 400 544
WIRE 656 544 656 336
WIRE 656 544 592 544
WIRE -256 592 -256 432
WIRE -128 592 -256 592
WIRE -16 592 -16 464
WIRE -16 592 -128 592
WIRE 48 592 -16 592
FLAG 800 256 0
FLAG 288 0 0
FLAG 384 32 0
FLAG 656 96 0
FLAG 784 -160 0
FLAG -176 -288 0
FLAG 160 32 0
FLAG 96 16 0
FLAG -352 -128 0
SYMBOL PowerProducts\\LT3094 224 416 R0
SYMATTR InstName U1
SYMBOL PowerProducts\\LT3045 288 -224 R0
SYMATTR InstName U2
SYMBOL cap -192 -352 R0
SYMATTR InstName C1
SYMATTR Value 10µ
SYMBOL cap -144 528 R0
SYMATTR InstName C2
SYMATTR Value 10µ
SYMBOL cap 576 256 R0
SYMATTR InstName C3
SYMATTR Value 10µ
SYMBOL cap 768 -224 R0
SYMATTR InstName C4
SYMATTR Value 10µ
SYMBOL res 576 400 R0
SYMATTR InstName R1
SYMATTR Value 1Meg
SYMBOL res 640 240 R0
SYMATTR InstName R2
SYMATTR Value 120K
SYMBOL res 128 192 R0
SYMATTR InstName R3
SYMATTR Value 30k
SYMBOL cap 64 224 R0
SYMATTR InstName C5
SYMATTR Value 4.7µ
SYMBOL res 304 192 R0
SYMATTR InstName R4
SYMATTR Value 16K
SYMBOL res 368 -64 R0
SYMATTR InstName R5
SYMATTR Value 680
SYMBOL res 640 0 R0
SYMATTR InstName R6
SYMATTR Value 47K
SYMBOL res 144 -64 R0
SYMATTR InstName R7
SYMATTR Value 70k
SYMBOL cap 80 -48 R0
SYMATTR InstName C6
SYMATTR Value 4.7µ
SYMBOL voltage -352 -304 R0
WINDOW 123 0 0 Left 0
WINDOW 39 0 0 Left 0
SYMATTR InstName V1
SYMATTR Value 7.526
SYMBOL voltage -256 336 R0
WINDOW 123 0 0 Left 0
WINDOW 39 0 0 Left 0
SYMATTR InstName V2
SYMATTR Value 3.76
SYMBOL res 976 48 R0
SYMATTR InstName R8
SYMATTR Value 80
SYMBOL res 640 -160 R0
SYMATTR InstName R9
SYMATTR Value 1Meg
TEXT -384 648 Left 2 !.tran 0 1 0
