Version 4
SHEET 1 2360 1000
WIRE 128 -880 -48 -880
WIRE 160 -880 128 -880
WIRE 288 -880 240 -880
WIRE 432 -880 288 -880
WIRE 576 -880 496 -880
WIRE 672 -880 576 -880
WIRE 880 -880 672 -880
WIRE 944 -880 880 -880
WIRE 1440 -880 944 -880
WIRE 128 -784 128 -880
WIRE 288 -784 288 -880
WIRE 576 -784 576 -880
WIRE 672 -784 672 -880
WIRE -192 -720 -320 -720
WIRE -48 -720 -48 -880
WIRE -48 -720 -192 -720
WIRE -48 -672 -48 -720
WIRE 48 -672 -48 -672
WIRE 576 -672 576 -720
WIRE 576 -672 368 -672
WIRE 672 -672 672 -704
WIRE 672 -672 576 -672
WIRE 1440 -528 1440 -880
WIRE 672 -512 672 -672
WIRE 288 -496 288 -560
WIRE 128 -464 128 -496
WIRE -320 -80 -320 -720
WIRE -144 -80 -320 -80
WIRE -48 -80 -144 -80
WIRE 112 -80 -48 -80
WIRE 160 -80 112 -80
WIRE 272 -80 240 -80
WIRE 336 -80 272 -80
WIRE 560 -80 400 -80
WIRE 656 -80 560 -80
WIRE 736 -80 720 -80
WIRE 848 -80 736 -80
WIRE 992 -80 848 -80
WIRE 1168 -80 992 -80
WIRE 1440 -80 1440 -448
WIRE 1440 -80 1168 -80
WIRE 560 -64 560 -80
WIRE 848 -64 848 -80
WIRE -144 0 -144 -16
WIRE 112 16 112 -80
WIRE 272 16 272 -80
WIRE 992 64 992 -80
WIRE 1168 80 1168 -80
WIRE 560 96 560 0
WIRE 848 96 848 0
WIRE 848 96 560 96
WIRE -48 128 -48 -80
WIRE 32 128 -48 128
WIRE 896 128 352 128
WIRE -320 192 -320 -80
WIRE 992 208 992 144
WIRE 1168 208 1168 144
WIRE 1168 208 992 208
WIRE 896 240 896 128
WIRE 992 240 992 208
WIRE 992 240 896 240
WIRE 992 256 992 240
WIRE 272 304 272 240
FLAG -320 272 0
FLAG -144 0 0
FLAG 560 96 0
FLAG 992 336 0
FLAG 672 -432 0
FLAG 880 -880 VoP
FLAG -192 -656 0
FLAG -320 -720 Vin
FLAG 944 -816 0
FLAG 112 304 0
FLAG 272 304 0
FLAG 288 -496 0
FLAG 128 -464 0
SYMBOL ind 256 -96 R90
WINDOW 0 5 56 VBottom 2
WINDOW 3 32 56 VTop 2
SYMATTR InstName L1
SYMATTR Value 2.5µ
SYMATTR SpiceLine Ipk=4.1 Rser=0.051
SYMBOL voltage -320 176 R0
WINDOW 123 0 0 Left 0
WINDOW 39 24 124 Left 2
SYMATTR SpiceLine Rser=0
SYMATTR InstName V1
SYMATTR Value 5
SYMBOL cap 128 304 R180
WINDOW 0 24 56 Left 2
WINDOW 3 24 8 Left 2
SYMATTR InstName C2
SYMATTR Value 1µ
SYMBOL cap 400 -96 R90
WINDOW 0 0 32 VBottom 2
WINDOW 3 32 32 VTop 2
SYMATTR InstName C3
SYMATTR Value 1µ
SYMATTR SpiceLine V=20
SYMBOL cap -160 -80 R0
SYMATTR InstName C4
SYMATTR Value 10µ
SYMATTR SpiceLine V=10
SYMBOL cap 832 -64 R0
SYMATTR InstName C5
SYMATTR Value 10µ
SYMATTR SpiceLine V=20
SYMBOL res 976 48 R0
SYMATTR InstName R3
SYMATTR Value 1Meg
SYMBOL res 976 240 R0
SYMATTR InstName R4
SYMATTR Value 270k
SYMBOL ind 640 -64 R270
WINDOW 0 32 56 VTop 2
WINDOW 3 5 56 VBottom 2
SYMATTR InstName L2
SYMATTR Value 2.5µ
SYMBOL schottky 544 -64 R0
SYMATTR InstName D1
SYMATTR Value B540C
SYMATTR Description Diode
SYMATTR Type diode
SYMBOL res 688 -416 R180
WINDOW 0 36 76 Left 2
WINDOW 3 36 40 Left 2
SYMATTR InstName R9
SYMATTR Value 270k
SYMBOL ind 256 -896 R90
WINDOW 0 5 56 VBottom 2
WINDOW 3 32 56 VTop 2
SYMATTR InstName L3
SYMATTR Value 1.5µ
SYMATTR SpiceLine Ipk=4 Rser=0.026 Rpar=0 Cpar=0 mfg="Taiyo Yuden" pn="LSXND6060WKL1R5NMG"
SYMBOL cap 144 -496 R180
WINDOW 0 24 56 Left 2
WINDOW 3 24 8 Left 2
SYMATTR InstName C9
SYMATTR Value 1µ
SYMBOL cap -208 -720 R0
SYMATTR InstName C10
SYMATTR Value 10µ
SYMBOL cap 928 -880 R0
SYMATTR InstName C12
SYMATTR Value 10µ
SYMBOL PowerProducts\\LT8330 208 -672 R0
SYMATTR InstName U1
SYMBOL PowerProducts\\LT8330 192 128 R0
SYMATTR InstName U2
SYMBOL cap 1152 80 R0
SYMATTR InstName C1
SYMATTR Value 4.7p
SYMBOL schottky 432 -864 R270
WINDOW 0 32 32 VTop 2
WINDOW 3 0 32 VBottom 2
SYMATTR InstName D2
SYMATTR Value 1N5819
SYMATTR Description Diode
SYMATTR Type diode
SYMBOL res 656 -800 R0
SYMATTR InstName R5
SYMATTR Value 1Meg
SYMBOL cap 560 -784 R0
SYMATTR InstName C6
SYMATTR Value 4.7p
SYMBOL res 1424 -544 R0
SYMATTR InstName R1
SYMATTR Value 80
TEXT -352 520 Left 2 !.tran 0 1 0
TEXT 1000 -8 Left 2 ;-3.76V
TEXT 680 -840 Left 2 ;7.526V
